Version 4
SHEET 1 1360 680
WIRE 128 -112 0 -112
WIRE 368 -112 192 -112
WIRE 368 -64 368 -112
WIRE 0 -48 0 -112
WIRE 0 112 0 32
WIRE 176 112 0 112
WIRE 368 112 368 16
WIRE 368 112 176 112
WIRE 176 144 176 112
FLAG 176 144 0
SYMBOL zener 128 -128 M90
WINDOW 0 0 32 VBottom 2
WINDOW 3 32 32 VTop 2
SYMATTR InstName D1
SYMATTR Value 1N750
SYMATTR Description Diode
SYMATTR Type diode
SYMBOL res 352 -80 R0
SYMATTR InstName R1
SYMATTR Value 1K
SYMBOL voltage 0 -64 R0
WINDOW 123 24 124 Left 2
WINDOW 39 0 0 Left 0
WINDOW 3 24 96 Left 1
SYMATTR Value PULSE(-8 8 0 50u 50u 0 100u)
SYMATTR InstName Vi
TEXT -32 168 Left 2 !.dc Vi -8V +8V 0.05
TEXT -16 -128 Left 2 ;A
TEXT 368 -128 Left 2 ;B
TEXT 224 -288 Center 2 ;La intensidad del diodo cuando Vi=6 es de 5.3652mA
