Version 4
SHEET 1 880 680
WIRE 80 48 48 48
WIRE 176 48 144 48
WIRE 208 48 176 48
WIRE 320 48 272 48
WIRE 176 128 176 48
WIRE 48 160 48 48
WIRE 48 160 -128 160
WIRE 320 160 320 48
WIRE 496 160 320 160
WIRE 496 272 496 160
WIRE 48 288 48 160
WIRE 80 288 48 288
WIRE 176 288 176 208
WIRE 176 288 144 288
WIRE 240 288 176 288
WIRE 320 288 320 160
WIRE 320 288 304 288
WIRE 176 352 176 288
WIRE -128 480 -128 160
WIRE 496 480 496 352
WIRE 496 480 -128 480
FLAG 176 352 0
SYMBOL diode 208 64 R270
WINDOW 0 32 32 VTop 2
WINDOW 3 0 32 VBottom 2
SYMATTR InstName D1
SYMATTR Value 1N4148
SYMBOL diode 240 304 R270
WINDOW 0 32 32 VTop 2
WINDOW 3 0 32 VBottom 2
SYMATTR InstName D2
SYMATTR Value 1N4148
SYMBOL voltage 176 112 R0
WINDOW 123 24 124 Left 2
WINDOW 39 0 0 Left 0
SYMATTR InstName Vi
SYMATTR Value PULSE(-5 5 50u 100n 100n 50u 100u)
SYMBOL diode 80 32 M90
WINDOW 0 0 32 VBottom 2
WINDOW 3 32 32 VTop 2
SYMATTR InstName D4
SYMATTR Value 1N4148
SYMBOL diode 80 304 R270
WINDOW 0 32 32 VTop 2
WINDOW 3 0 32 VBottom 2
SYMATTR InstName D3
SYMATTR Value 1N4148
SYMBOL res 480 256 R0
SYMATTR InstName R1
SYMATTR Value 1K
TEXT 168 24 Left 2 ;A
TEXT 488 144 Left 2 ;B
TEXT 504 488 Left 2 ;C
TEXT -128 512 Left 2 !.tran 200µ
